MODEL 1
REMARK VINA RESULT:     0.000      0.000      0.000
REMARK INTER + INTRA:          -1.033
REMARK INTER:                   0.000
REMARK INTRA:                  -1.033
REMARK UNBOUND:                -1.033
BEGIN_RES THR A 315
REMARK INDEX MAP 3 1 15 2 17 3 18 4 22 5
ROOT
ATOM      1  CA  THR A 315      13.079  52.503   8.093  1.00  0.00     0.199 C 
ENDROOT
BRANCH   1   2
ATOM      2  CB  THR A 315      13.429  52.900   9.553  1.00  0.00     0.143 C 
ATOM      3 CG2  THR A 315      13.596  51.712  10.434  1.00  0.00     0.041 C 
BRANCH   2   4
ATOM      4 OG1  THR A 315      14.616  53.702   9.554  1.00  0.00    -0.389 OA
ATOM      5 HG1  THR A 315      14.453  54.444   9.194  1.00  0.00     0.211 HD
ENDBRANCH   2   4
ENDBRANCH   1   2
END_RES THR A 315
ENDMDL
MODEL 2
REMARK VINA RESULT:     0.008      0.003      0.003
REMARK INTER + INTRA:          -1.025
REMARK INTER:                   0.000
REMARK INTRA:                  -1.025
REMARK UNBOUND:                -1.033
BEGIN_RES THR A 315
REMARK INDEX MAP 3 1 15 2 17 3 18 4 22 5
ROOT
ATOM      1  CA  THR A 315      13.079  52.503   8.093  1.00  0.00     0.199 C 
ENDROOT
BRANCH   1   2
ATOM      2  CB  THR A 315      13.429  52.900   9.553  1.00  0.00     0.143 C 
ATOM      3 CG2  THR A 315      13.592  51.712  10.434  1.00  0.00     0.041 C 
BRANCH   2   4
ATOM      4 OG1  THR A 315      14.618  53.700   9.554  1.00  0.00    -0.389 OA
ATOM      5 HG1  THR A 315      15.284  53.211   9.704  1.00  0.00     0.211 HD
ENDBRANCH   2   4
ENDBRANCH   1   2
END_RES THR A 315
ENDMDL
MODEL 3
REMARK VINA RESULT:     0.008      0.003      0.003
REMARK INTER + INTRA:          -1.025
REMARK INTER:                   0.000
REMARK INTRA:                  -1.025
REMARK UNBOUND:                -1.033
BEGIN_RES THR A 315
REMARK INDEX MAP 3 1 15 2 17 3 18 4 22 5
ROOT
ATOM      1  CA  THR A 315      13.079  52.503   8.093  1.00  0.00     0.199 C 
ENDROOT
BRANCH   1   2
ATOM      2  CB  THR A 315      13.429  52.900   9.553  1.00  0.00     0.143 C 
ATOM      3 CG2  THR A 315      13.592  51.712  10.434  1.00  0.00     0.041 C 
BRANCH   2   4
ATOM      4 OG1  THR A 315      14.618  53.699   9.554  1.00  0.00    -0.389 OA
ATOM      5 HG1  THR A 315      14.451  54.450   9.217  1.00  0.00     0.211 HD
ENDBRANCH   2   4
ENDBRANCH   1   2
END_RES THR A 315
ENDMDL
