REMARK VINA RESULT:   -14.604      0.180      0.180
REMARK INTER + INTRA:         -16.692
REMARK INTER:                 -16.692
REMARK INTRA:                   0.000
REMARK CONF_INDEPENDENT:        2.088
REMARK UNBOUND:                -1.142
REMARK SMILES Cc1ccc(NC(=O)c2ccc(CN3CC[NH+](C)CC3)cc2)cc1Nc1nccc(-c2cccnc2)n1
REMARK SMILES IDX 6 1 7 2 8 3 5 5 24 6 2 7 23 8 3 9 4 10 1 11 25 12 26 14
REMARK SMILES IDX 30 15 29 16 37 17 28 18 27 19 31 20 33 21 32 22 34 23 35 24
REMARK SMILES IDX 36 25 9 26 10 27 22 28 11 29 21 30 12 31 13 32 14 33 15 34
REMARK SMILES IDX 20 35 16 36 19 37 17 38 18 39
REMARK H PARENT 6 4 25 13 17 40
ROOT
ATOM      1  N   UNL     1      16.691  51.891  14.770  1.00  0.00    -0.322 N 
ATOM      2  C   UNL     1      15.712  51.840  15.749  1.00  0.00     0.255 C 
ATOM      3  O   UNL     1      14.870  52.707  15.930  1.00  0.00    -0.269 OA
ATOM      4  H   UNL     1      17.450  51.200  14.853  1.00  0.00     0.170 HD
ENDROOT
BRANCH   1   5
ATOM      5  C   UNL     1      16.777  52.794  13.649  1.00  0.00     0.043 A 
ATOM      6  C   UNL     1      15.928  54.685  12.248  1.00  0.00     0.046 A 
ATOM      7  C   UNL     1      17.067  54.539  11.333  1.00  0.00    -0.027 A 
ATOM      8  C   UNL     1      15.796  53.831  13.372  1.00  0.00     0.052 A 
ATOM      9  C   UNL     1      18.033  53.516  11.613  1.00  0.00     0.008 A 
ATOM     10  C   UNL     1      17.884  52.656  12.761  1.00  0.00     0.026 A 
ATOM     11  C   UNL     1      17.275  55.427  10.085  1.00  0.00     0.046 C 
BRANCH   6  12
ATOM     12  N   UNL     1      14.956  55.664  12.030  1.00  0.00    -0.324 N 
ATOM     13  H   UNL     1      14.086  55.418  11.537  1.00  0.00     0.170 HD
BRANCH  12  14
ATOM     14  C   UNL     1      15.149  56.965  12.470  1.00  0.00     0.227 A 
ATOM     15  C   UNL     1      14.242  59.152  12.732  1.00  0.00     0.077 A 
ATOM     16  C   UNL     1      15.466  59.615  13.318  1.00  0.00     0.049 A 
ATOM     17  N   UNL     1      14.131  57.839  12.331  1.00  0.00    -0.213 NA
ATOM     18  C   UNL     1      16.516  58.680  13.453  1.00  0.00     0.117 A 
ATOM     19  N   UNL     1      16.344  57.380  13.030  1.00  0.00    -0.221 NA
BRANCH  15  20
ATOM     20  C   UNL     1      13.042  60.022  12.519  1.00  0.00     0.019 A 
ATOM     21  C   UNL     1      11.748  62.163  12.840  1.00  0.00     0.021 A 
ATOM     22  C   UNL     1      12.928  61.364  13.076  1.00  0.00     0.013 A 
ATOM     23  C   UNL     1      10.690  61.599  12.044  1.00  0.00     0.111 A 
ATOM     24  N   UNL     1      10.812  60.307  11.511  1.00  0.00    -0.264 NA
ATOM     25  C   UNL     1      11.936  59.515  11.720  1.00  0.00     0.121 A 
ENDBRANCH  15  20
ENDBRANCH  12  14
ENDBRANCH   6  12
ENDBRANCH   1   5
BRANCH   2  26
ATOM     26  C   UNL     1      15.672  50.663  16.669  1.00  0.00     0.040 A 
ATOM     27  C   UNL     1      14.491  50.379  17.488  1.00  0.00     0.014 A 
ATOM     28  C   UNL     1      16.831  49.801  16.755  1.00  0.00     0.014 A 
ATOM     29  C   UNL     1      14.484  49.246  18.380  1.00  0.00     0.006 A 
ATOM     30  C   UNL     1      16.821  48.691  17.630  1.00  0.00     0.006 A 
ATOM     31  C   UNL     1      15.665  48.389  18.457  1.00  0.00    -0.034 A 
BRANCH  31  32
ATOM     32  C   UNL     1      15.754  47.172  19.396  1.00  0.00     0.120 C 
BRANCH  32  33
ATOM     33  N   UNL     1      16.962  47.068  20.268  1.00  0.00    -0.288 NA
ATOM     34  C   UNL     1      17.127  48.318  21.097  1.00  0.00     0.146 C 
ATOM     35  C   UNL     1      16.911  45.836  21.176  1.00  0.00     0.146 C 
ATOM     36  C   UNL     1      18.392  48.239  21.997  1.00  0.00     0.277 C 
ATOM     37  C   UNL     1      18.193  45.731  22.065  1.00  0.00     0.277 C 
ATOM     38  N   UNL     1      18.343  47.009  22.893  1.00  0.00    -0.335 N 
ATOM     39  C   UNL     1      19.515  46.889  23.772  1.00  0.00     0.332 C 
ATOM     40  H   UNL     1      17.515  47.132  23.494  1.00  0.00     0.347 HD
ENDBRANCH  32  33
ENDBRANCH  31  32
ENDBRANCH   2  26
TORSDOF 7
