REMARK VINA RESULT:   -13.241      0.000      0.000
REMARK INTER + INTRA:         -18.660
REMARK INTER:                 -18.660
REMARK INTRA:                   0.000
REMARK UNBOUND:                -0.387
REMARK SMILES Cc1ccc(NC(=O)c2ccc(CN3CC[NH+](C)CC3)cc2)cc1Nc1nccc(-c2cccnc2)n1
REMARK SMILES IDX 6 1 7 2 8 3 5 5 24 6 2 7 23 8 3 9 4 10 1 11 25 12 26 14
REMARK SMILES IDX 30 15 29 16 37 17 28 18 27 19 31 20 33 21 32 22 34 23 35 24
REMARK SMILES IDX 36 25 9 26 10 27 22 28 11 29 21 30 12 31 13 32 14 33 15 34
REMARK SMILES IDX 20 35 16 36 19 37 17 38 18 39
REMARK H PARENT 6 4 25 13 17 40
ROOT
ATOM      1  N   UNL     1      16.623  51.805  14.762  1.00  0.00    -0.322 N 
ATOM      2  C   UNL     1      15.666  51.714  15.759  1.00  0.00     0.255 C 
ATOM      3  O   UNL     1      14.821  52.567  15.987  1.00  0.00    -0.269 OA
ATOM      4  H   UNL     1      17.388  51.117  14.806  1.00  0.00     0.170 HD
ENDROOT
BRANCH   1   5
ATOM      5  C   UNL     1      16.680  52.745  13.671  1.00  0.00     0.043 A 
ATOM      6  C   UNL     1      15.796  54.686  12.362  1.00  0.00     0.046 A 
ATOM      7  C   UNL     1      16.907  54.569  11.409  1.00  0.00    -0.027 A 
ATOM      8  C   UNL     1      15.694  53.794  13.459  1.00  0.00     0.052 A 
ATOM      9  C   UNL     1      17.878  53.534  11.625  1.00  0.00     0.008 A 
ATOM     10  C   UNL     1      17.759  52.636  12.746  1.00  0.00     0.026 A 
ATOM     11  C   UNL     1      17.081  55.499  10.186  1.00  0.00     0.046 C 
BRANCH   6  12
ATOM     12  N   UNL     1      14.822  55.675  12.206  1.00  0.00    -0.324 N 
ATOM     13  H   UNL     1      13.906  55.429  11.804  1.00  0.00     0.170 HD
BRANCH  12  14
ATOM     14  C   UNL     1      15.073  56.984  12.587  1.00  0.00     0.227 A 
ATOM     15  C   UNL     1      14.256  59.214  12.772  1.00  0.00     0.077 A 
ATOM     16  C   UNL     1      15.509  59.653  13.317  1.00  0.00     0.049 A 
ATOM     17  N   UNL     1      14.087  57.891  12.429  1.00  0.00    -0.213 NA
ATOM     18  C   UNL     1      16.524  58.683  13.474  1.00  0.00     0.117 A 
ATOM     19  N   UNL     1      16.293  57.374  13.109  1.00  0.00    -0.221 NA
BRANCH  15  20
ATOM     20  C   UNL     1      13.088  60.121  12.543  1.00  0.00     0.019 A 
ATOM     21  C   UNL     1      11.889  62.327  12.784  1.00  0.00     0.021 A 
ATOM     22  C   UNL     1      13.041  61.493  13.033  1.00  0.00     0.013 A 
ATOM     23  C   UNL     1      10.789  61.768  12.043  1.00  0.00     0.111 A 
ATOM     24  N   UNL     1      10.845  60.447  11.574  1.00  0.00    -0.264 NA
ATOM     25  C   UNL     1      11.942  59.621  11.797  1.00  0.00     0.121 A 
ENDBRANCH  15  20
ENDBRANCH  12  14
ENDBRANCH   6  12
ENDBRANCH   1   5
BRANCH   2  26
ATOM     26  C   UNL     1      15.653  50.506  16.640  1.00  0.00     0.040 A 
ATOM     27  C   UNL     1      14.500  50.197  17.490  1.00  0.00     0.014 A 
ATOM     28  C   UNL     1      16.810  49.637  16.655  1.00  0.00     0.014 A 
ATOM     29  C   UNL     1      14.520  49.035  18.342  1.00  0.00     0.006 A 
ATOM     30  C   UNL     1      16.826  48.498  17.491  1.00  0.00     0.006 A 
ATOM     31  C   UNL     1      15.698  48.172  18.348  1.00  0.00    -0.034 A 
BRANCH  31  32
ATOM     32  C   UNL     1      15.816  46.923  19.241  1.00  0.00     0.120 C 
BRANCH  32  33
ATOM     33  N   UNL     1      17.070  46.766  20.036  1.00  0.00    -0.288 NA
ATOM     34  C   UNL     1      17.293  47.969  20.919  1.00  0.00     0.146 C 
ATOM     35  C   UNL     1      17.060  45.489  20.880  1.00  0.00     0.146 C 
ATOM     36  C   UNL     1      18.606  47.836  21.741  1.00  0.00     0.277 C 
ATOM     37  C   UNL     1      18.389  45.329  21.688  1.00  0.00     0.277 C 
ATOM     38  N   UNL     1      18.597  46.560  22.572  1.00  0.00    -0.335 N 
ATOM     39  C   UNL     1      19.816  46.388  23.375  1.00  0.00     0.332 C 
ATOM     40  H   UNL     1      17.806  46.656  23.225  1.00  0.00     0.347 HD
ENDBRANCH  32  33
ENDBRANCH  31  32
ENDBRANCH   2  26
TORSDOF 7
